Version 4
SHEET 1 880 680
WIRE -16 32 -128 32
WIRE 80 32 64 32
WIRE 288 32 160 32
WIRE -128 64 -128 32
WIRE 160 80 160 32
WIRE 288 80 288 32
WIRE -128 160 -128 144
WIRE 64 160 -128 160
WIRE 160 160 160 144
WIRE 160 160 64 160
WIRE 288 160 288 144
WIRE 288 160 160 160
WIRE 64 192 64 160
FLAG 64 192 0
SYMBOL voltage -128 48 R0
WINDOW 123 24 124 Left 2
WINDOW 39 0 0 Left 0
SYMATTR InstName V1
SYMATTR Value SINE()
SYMATTR Value2 AC 1 0
SYMBOL cap 144 80 R0
SYMATTR InstName C1
SYMATTR Value 10µ
SYMBOL cap 304 144 R180
WINDOW 0 24 56 Left 2
WINDOW 3 24 8 Left 2
SYMATTR InstName C2
SYMATTR Value 0.1µ
SYMBOL res 80 16 R90
WINDOW 0 0 56 VBottom 2
WINDOW 3 32 56 VTop 2
SYMATTR InstName R1
SYMATTR Value 220
SYMBOL ind 176 16 R90
WINDOW 0 5 56 VBottom 2
WINDOW 3 32 56 VTop 2
SYMATTR InstName L1
SYMATTR Value 4.7µ
TEXT -24 304 Left 2 !.ac oct 1000 0.1 500k
