Version 4
SHEET 1 2020 680
WIRE 656 -672 576 -672
WIRE 576 -608 576 -672
WIRE 656 -592 656 -672
WIRE 1456 -512 1312 -512
WIRE 656 -480 656 -512
WIRE 1456 -448 1456 -512
WIRE 1312 -416 1312 -512
WIRE 1152 -368 1072 -368
WIRE 1072 -320 1072 -368
WIRE 1456 -304 1456 -368
WIRE 1520 -304 1456 -304
WIRE 1568 -304 1520 -304
WIRE 1808 -304 1632 -304
WIRE 1152 -288 1152 -368
WIRE 512 -256 448 -256
WIRE 656 -256 656 -400
WIRE 656 -256 576 -256
WIRE 816 -256 656 -256
WIRE 1808 -224 1808 -304
WIRE 656 -176 656 -256
WIRE 1152 -176 1152 -224
WIRE 1168 -176 1152 -176
WIRE 1328 -176 1248 -176
WIRE 1632 -176 1328 -176
WIRE 448 -128 448 -256
WIRE 1328 -96 1328 -176
WIRE 1328 -96 1136 -96
WIRE 1520 -32 1520 -304
WIRE 1520 -32 1280 -32
WIRE 1136 -16 1136 -96
WIRE 1216 -16 1136 -16
WIRE 1712 0 1712 -176
WIRE 1712 0 1344 0
WIRE 1792 0 1712 0
WIRE 1920 0 1872 0
WIRE 2016 0 1920 0
WIRE 656 16 656 -96
WIRE 1040 16 960 16
WIRE 1216 16 1040 16
WIRE 816 32 816 -256
WIRE 880 32 816 32
WIRE 960 32 960 16
WIRE 1040 112 1040 16
WIRE 1280 224 1280 32
WIRE 224 256 160 256
WIRE 352 256 288 256
WIRE 480 256 432 256
WIRE 656 256 480 256
WIRE 784 256 656 256
WIRE 1040 256 1040 176
WIRE 1040 256 784 256
WIRE 160 352 160 256
WIRE 480 352 480 256
WIRE 656 352 656 256
WIRE 784 352 784 256
WIRE 480 480 480 416
WIRE 160 496 160 432
WIRE 656 496 656 432
WIRE 784 496 784 432
FLAG 160 496 0
FLAG 480 480 0
FLAG 656 496 0
FLAG 784 496 0
FLAG 656 16 0
FLAG 576 -608 0
FLAG 1072 -320 0
FLAG 1312 -416 0
FLAG 1808 -224 0
FLAG 1280 224 0
FLAG 1920 0 out
FLAG 448 -128 0
SYMBOL voltage 160 336 R0
WINDOW 123 24 140 Left 2
WINDOW 39 24 118 Left 2
SYMATTR Value2 AC 1 0
SYMATTR SpiceLine Rser=50
SYMATTR InstName V1
SYMATTR Value ""
SYMBOL cap 288 240 R90
WINDOW 0 0 32 VBottom 2
WINDOW 3 32 32 VTop 2
SYMATTR InstName C1
SYMATTR Value {mc(8.870p, tolC)}
SYMBOL Res 768 336 R0
SYMATTR InstName RL
SYMATTR Value 50
SYMBOL Ind 448 240 R90
WINDOW 0 5 56 VBottom 2
WINDOW 3 32 56 VTop 2
SYMATTR InstName L1
SYMATTR Value {mc(57.60u, tolL)}
SYMBOL Ind 672 448 R180
WINDOW 0 36 80 Left 2
WINDOW 3 -67 -11 Left 2
SYMATTR InstName L2
SYMATTR Value {mc(22.10n, tolL)}
SYMBOL Cap 464 352 R0
WINDOW 3 -90 72 Left 2
SYMATTR Value {mc(23.20n, tolC)}
SYMATTR InstName C2
SYMBOL Cap 576 -272 R90
WINDOW 0 0 32 VBottom 2
WINDOW 3 32 32 VTop 2
SYMATTR InstName C3
SYMATTR Value 0.01µ
SYMBOL Res 640 -496 R0
SYMATTR InstName R1
SYMATTR Value 470
SYMBOL Res 640 -192 R0
SYMATTR InstName R2
SYMATTR Value 470
SYMBOL Voltage 656 -496 R180
WINDOW 0 24 96 Left 2
WINDOW 3 24 16 Left 2
SYMATTR InstName V2
SYMATTR Value 3.3
SYMBOL AutoGenerated/THS4304 1280 0 R0
SYMATTR InstName U1
SYMBOL Res 1264 -192 R90
WINDOW 0 0 56 VBottom 2
WINDOW 3 32 56 VTop 2
SYMATTR InstName R3
SYMATTR Value 47
SYMBOL Res 1728 -192 R90
WINDOW 0 0 56 VBottom 2
WINDOW 3 32 56 VTop 2
SYMATTR InstName R4
SYMATTR Value 220
SYMBOL Res 1888 -16 R90
WINDOW 0 0 56 VBottom 2
WINDOW 3 32 56 VTop 2
SYMATTR InstName R5
SYMATTR Value 100
SYMBOL Cap 1136 -288 R0
SYMATTR InstName C4
SYMATTR Value 0.1µ
SYMBOL Cap 1632 -320 R90
WINDOW 0 0 32 VBottom 2
WINDOW 3 32 32 VTop 2
SYMATTR InstName C5
SYMATTR Value 0.1µ
SYMBOL Voltage 1456 -352 R180
WINDOW 0 24 96 Left 2
WINDOW 3 24 16 Left 2
SYMATTR InstName V3
SYMATTR Value 3.3
SYMBOL Res 976 16 R90
WINDOW 0 0 56 VBottom 2
WINDOW 3 32 56 VTop 2
SYMATTR InstName R6
SYMATTR Value 470
SYMBOL Cap 1024 112 R0
SYMATTR InstName C6
SYMATTR Value 0.01µ
TEXT 88 112 Left 2 !.ac dec 1001 5.253Meg 9.434Meg\n.net I(RL) V1\n.param tolC=0.01 tolL=0.01\n.step param run 1 100 1
TEXT 1216 120 Left 2 !.inc THS4304.lib
