Version 4
SHEET 1 1248 1152
WIRE 544 32 464 32
WIRE 176 64 96 64
WIRE 464 64 464 32
WIRE 96 96 96 64
WIRE 544 96 544 32
WIRE 176 160 176 64
WIRE 352 176 288 176
WIRE 288 208 288 176
WIRE 352 224 352 176
WIRE 544 240 544 176
WIRE 608 240 544 240
WIRE 656 240 608 240
WIRE 848 240 720 240
WIRE 176 336 176 240
WIRE 352 336 352 288
WIRE 368 336 352 336
WIRE 480 336 448 336
WIRE 656 336 480 336
WIRE 848 336 848 240
WIRE 656 352 656 336
WIRE 800 352 736 352
WIRE 608 400 608 240
WIRE 480 416 480 336
WIRE 544 416 480 416
WIRE 800 432 800 352
WIRE 800 432 672 432
WIRE 848 432 800 432
WIRE 992 432 928 432
WIRE 1040 432 992 432
WIRE 32 448 -192 448
WIRE 176 448 176 416
WIRE 176 448 96 448
WIRE 224 448 176 448
WIRE 368 448 304 448
WIRE 544 448 368 448
WIRE 176 512 176 448
WIRE 368 528 368 448
WIRE -192 544 -192 448
WIRE 608 592 608 464
WIRE 608 592 576 592
WIRE 176 624 176 592
WIRE 576 624 576 592
WIRE 368 688 368 592
WIRE 368 704 368 688
WIRE 368 896 368 784
FLAG 848 336 0
FLAG 576 624 0
FLAG 288 208 0
FLAG 176 624 0
FLAG 96 96 0
FLAG 464 64 0
FLAG -192 544 0
FLAG 368 896 0
FLAG 992 432 out
FLAG 368 688 in
SYMBOL res 160 320 R0
SYMATTR InstName R3
SYMATTR Value 470
SYMBOL res 160 496 R0
SYMATTR InstName R1
SYMATTR Value 470
SYMBOL Res 464 320 R90
WINDOW 0 0 56 VBottom 2
WINDOW 3 41 61 VTop 2
SYMATTR InstName R2
SYMATTR Value 47
SYMBOL Res 752 336 R90
WINDOW 0 0 56 VBottom 2
WINDOW 3 32 56 VTop 2
SYMATTR InstName R4
SYMATTR Value 220
SYMBOL Res 944 416 R90
WINDOW 0 0 56 VBottom 2
WINDOW 3 32 56 VTop 2
SYMATTR InstName R7
SYMATTR Value 100
SYMBOL Cap 96 432 R90
WINDOW 0 0 32 VBottom 2
WINDOW 3 32 32 VTop 2
SYMATTR InstName C2
SYMATTR Value 0.01µ
SYMBOL Cap 368 288 R180
WINDOW 0 24 56 Left 2
WINDOW 3 24 8 Left 2
SYMATTR InstName C1
SYMATTR Value 0.1µ
SYMBOL Cap 656 256 R270
WINDOW 0 32 32 VTop 2
WINDOW 3 0 32 VBottom 2
SYMATTR InstName C3
SYMATTR Value 0.1µ
SYMBOL voltage 544 192 R180
WINDOW 0 24 96 Left 2
WINDOW 3 24 16 Left 2
SYMATTR InstName V2
SYMATTR Value 3.3
SYMBOL res 320 432 R90
WINDOW 0 0 56 VBottom 2
WINDOW 3 32 56 VTop 2
SYMATTR InstName R5
SYMATTR Value 470
SYMBOL cap 352 528 R0
SYMATTR InstName C4
SYMATTR Value 0.01µ
SYMBOL bv 176 256 R180
WINDOW 0 24 96 Left 2
WINDOW 3 24 16 Left 2
SYMATTR InstName B1
SYMATTR Value V=3.3+0.1*white(1e6*time)
SYMBOL AutoGenerated/THS4304 608 432 R0
SYMATTR InstName U1
SYMBOL voltage 368 688 R0
WINDOW 123 24 118 Left 2
SYMATTR Value2 AC 1 0
SYMATTR InstName V1
SYMATTR Value SINE(0 0.01 {FRQ} 0 0 0)
TEXT 632 472 Left 2 !.inc THS4304.lib
TEXT 432 736 Left 2 !.step param FRQ 7040000 7040104.3944 1.4648\n.tran 1us
