Version 4
SHEET 1 1556 816
WIRE 416 -96 336 -96
WIRE 48 -64 -32 -64
WIRE 336 -64 336 -96
WIRE -32 -32 -32 -64
WIRE 416 -32 416 -96
WIRE 48 32 48 -64
WIRE 224 48 160 48
WIRE 160 80 160 48
WIRE 224 96 224 48
WIRE 416 112 416 48
WIRE 464 112 416 112
WIRE 528 112 464 112
WIRE 720 112 592 112
WIRE 48 208 48 112
WIRE 224 208 224 160
WIRE 240 208 224 208
WIRE 352 208 320 208
WIRE 528 208 352 208
WIRE 720 208 720 112
WIRE 528 224 528 208
WIRE 672 224 608 224
WIRE 464 272 464 112
WIRE 464 272 448 272
WIRE 352 288 352 208
WIRE 384 288 352 288
WIRE 672 304 672 224
WIRE 672 304 512 304
WIRE 720 304 672 304
WIRE 816 304 800 304
WIRE 912 304 816 304
WIRE -240 320 -352 320
WIRE -96 320 -160 320
WIRE 48 320 48 288
WIRE 48 320 -32 320
WIRE 384 320 48 320
WIRE -352 352 -352 320
WIRE 48 384 48 320
WIRE 448 448 448 336
WIRE 448 448 432 448
WIRE 48 496 48 464
WIRE 432 496 432 448
FLAG 720 208 0
FLAG 432 496 0
FLAG 160 80 0
FLAG 48 496 0
FLAG -32 -32 0
FLAG 336 -64 0
FLAG 816 304 out
FLAG -160 320 in
FLAG -352 352 0
SYMBOL res 32 192 R0
SYMATTR InstName R3
SYMATTR Value 470
SYMBOL res 32 368 R0
SYMATTR InstName R1
SYMATTR Value 470
SYMBOL Res 336 192 R90
WINDOW 0 0 56 VBottom 2
WINDOW 3 41 61 VTop 2
SYMATTR InstName R2
SYMATTR Value 47
SYMBOL Res 624 208 R90
WINDOW 0 0 56 VBottom 2
WINDOW 3 32 56 VTop 2
SYMATTR InstName R4
SYMATTR Value 220
SYMBOL Res 816 288 R90
WINDOW 0 0 56 VBottom 2
WINDOW 3 32 56 VTop 2
SYMATTR InstName R7
SYMATTR Value 100
SYMBOL Cap -32 304 R90
WINDOW 0 0 32 VBottom 2
WINDOW 3 32 32 VTop 2
SYMATTR InstName C2
SYMATTR Value 0.01µ
SYMBOL Cap 240 160 R180
WINDOW 0 24 56 Left 2
WINDOW 3 24 8 Left 2
SYMATTR InstName C1
SYMATTR Value 0.1µ
SYMBOL Cap 528 128 R270
WINDOW 0 32 32 VTop 2
WINDOW 3 0 32 VBottom 2
SYMATTR InstName C3
SYMATTR Value 0.1µ
SYMBOL voltage 416 64 R180
WINDOW 0 24 96 Left 2
WINDOW 3 24 16 Left 2
SYMATTR InstName V2
SYMATTR Value 3.3
SYMBOL bv 48 128 R180
WINDOW 0 24 96 Left 2
WINDOW 3 24 16 Left 2
SYMATTR InstName B1
SYMATTR Value V=3.3+0.1*white(1e6*time)
SYMBOL AutoGenerated/THS4304 448 304 R0
SYMATTR InstName U1
SYMBOL voltage -144 320 R90
WINDOW 0 -32 56 VBottom 2
WINDOW 3 129 407 VTop 2
WINDOW 123 162 476 VTop 2
SYMATTR InstName V1
SYMATTR Value SINE(0 0.01 {FRQ} 0 0 0)
SYMATTR Value2 AC 0.01 0
TEXT -680 520 Left 2 !.step param FRQ 7040000 7040104.3944 1.4648\n.tran 1us
TEXT 480 408 Left 2 !.inc THS4304.lib
